17
Generated by script: Q and theta modified geometry
C 2.432686 -0.359800 0.158500
C 2.139783 0.290244 -1.187300
S 1.164932 -0.565699 0.936249
S 0.604970 0.487386 -1.221898
Ni 0.000000 0.000000 0.000000
S -0.657884 0.971753 -0.848353
C -1.926957 1.527827 -0.158500
C -1.998276 0.818416 1.187300
S -0.847139 -0.132045 1.348502
C 3.169590 0.654146 -2.248800
N 4.006074 0.978780 -3.118300
C 3.806800 -0.760130 0.679100
N 5.095421 -1.188748 1.161400
C -2.916869 2.561522 -0.679100
N -3.818598 3.576974 -1.161400
C -3.072078 1.018110 2.248700
N -3.958819 1.155159 3.118300
