17
Generated by script: Q and theta modified geometry
C 2.364911 -0.674252 0.158500
C 2.159361 0.008462 -1.187300
S 0.979645 -0.645996 0.848367
S 0.732137 0.446130 -1.348480
Ni 0.000000 0.000000 0.000000
S -0.859800 0.968474 -0.936232
C -2.109894 1.263237 -0.158500
C -2.088005 0.550587 1.187300
S -0.745435 -0.218821 1.221920
C 3.227857 0.234834 -2.248800
N 4.099558 0.447507 -3.118300
C 3.675015 -1.250515 0.679100
N 4.896666 -1.843666 1.161400
C -3.226262 2.158878 -0.679100
N -4.252820 3.047944 -1.161400
C -3.178686 0.608412 2.248700
N -4.075730 0.628545 3.118300
